34
aig-opt.log	Energy: -618992.5713555
C          4.58080       -1.29085        0.00080
N          4.28145        0.02351        0.00040
C          3.62299       -2.29893        0.00090
C          2.98995        0.30114        0.00011
C          1.90417       -0.61765        0.00013
C          0.66431        0.17649       -0.00016
C          1.13933        1.62764       -0.00043
N          2.52012        1.60662       -0.00025
C         -0.66431       -0.17650       -0.00020
C         -1.13933       -1.62765       -0.00045
N         -2.52012       -1.60662       -0.00036
C         -2.98995       -0.30114       -0.00004
C         -2.26079        1.96924        0.00038
C         -1.90417        0.61765        0.00002
C          2.26080       -1.96924        0.00055
O         -0.48500       -2.66011       -0.00082
O          0.48498        2.66010       -0.00085
C         -3.35723       -2.79109       -0.00046
C          3.35722        2.79109       -0.00042
H          3.99687        2.80427        0.88706
H          3.99540        2.80523       -0.88895
H          2.69561        3.65781        0.00053
H         -3.99698       -2.80413        0.88694
H         -3.99530       -2.80535       -0.88907
H         -2.69562       -3.65781        0.00068
H         -3.93014        3.33986        0.00091
H         -1.50185        2.73567        0.00040
H          1.50186       -2.73568        0.00056
H          3.93016       -3.33986        0.00121
C         -3.62298        2.29894        0.00065
N         -4.28145       -0.02350        0.00018
C         -4.58079        1.29086        0.00054
H         -5.64187        1.53171        0.00072
H          5.64188       -1.53170        0.00102
