14
BBT_2.log	Energy: -781354.5149074
C          0.15468        1.45869       -0.00037
C         -1.11990        0.85150        0.00031
C          1.26284        0.58733       -0.00025
N          2.27667       -1.55330        0.00038
S          3.50410       -0.34447       -0.00028
N          2.52370        1.06857       -0.00074
N         -2.30643        1.49554        0.00041
S         -3.46728        0.31457        0.00127
N         -2.54824       -1.06305        0.00163
C          1.12890       -0.84048        0.00038
C         -1.26204       -0.65280        0.00101
C         -0.12351       -1.48801        0.00099
H         -0.19616       -2.56581        0.00149
H          0.28568        2.53089       -0.00093
