52
bdo-opt.log	Energy: -1027558.0687992
C          8.18150       -0.84054        0.22682
C          7.34156       -1.95492        0.25411
C          7.65175        0.44910        0.10663
C          0.55875       -1.20676       -0.13507
C          1.41833       -0.08862       -0.05830
C          0.81942        1.17812        0.08526
C         -0.55868        1.20670        0.13489
C         -1.41828        0.08857        0.05808
C         -0.81935       -1.17817       -0.08545
O          1.25523       -2.39062       -0.25280
C          2.60123       -2.10802       -0.23298
C          2.78486       -0.61241       -0.10321
O         -1.25514        2.39055        0.25274
C         -2.60113        2.10796        0.23314
C         -2.78482        0.61236        0.10321
O         -3.40093        3.00274        0.34339
O          3.40108       -3.00277       -0.34305
C         -4.02329        0.00630        0.06513
C          4.02329       -0.00629       -0.06520
C          5.38949       -0.53722        0.02120
C          6.27376        0.57613        0.01102
N          5.55129        1.76153       -0.09186
C          4.19505        1.50682       -0.13259
C         -5.38952        0.53728       -0.02072
C         -6.27379       -0.57608       -0.01099
N         -5.55130       -1.76154        0.09105
C         -4.19507       -1.50686        0.13171
C          5.95513       -1.81568        0.15218
C         -5.95525        1.81581       -0.15074
C         -6.11238       -3.09524        0.14701
C          6.11237        3.09520       -0.14860
O          3.34889        2.38311       -0.23577
O         -3.34891       -2.38324        0.23413
H          1.40018        2.08472        0.13712
H         -1.40012       -2.08476       -0.13737
H          8.29776        1.32088        0.09274
H          5.32220       -2.68838        0.16316
H         -8.29777       -1.32084       -0.09269
H         -5.32236        2.68854       -0.16134
H         -7.76624        2.94976       -0.34851
H          7.76606       -2.94955        0.35111
H         -6.68501       -3.31501       -0.76145
H         -6.76921       -3.20381        1.01761
H         -5.28073       -3.79587        0.23040
H          6.68505        3.31545        0.75971
H          6.76921        3.20326       -1.01929
H          5.28068        3.79578       -0.23226
C         -7.34171        1.95507       -0.25224
C         -7.65180       -0.44903       -0.10619
C         -8.18162        0.84067       -0.22546
H         -9.25804        0.96912       -0.29966
H          9.25789       -0.96897        0.30135
