12
bff-opt.log	Energy: -270277.0307772
C         -0.69766       -1.21665        0.00005
C         -1.37154       -0.00000        0.00004
C          0.69770       -1.21663        0.00004
F         -2.72202       -0.00002       -0.00011
F          2.72202        0.00001        0.00015
H          1.26244       -2.14284       -0.00004
H         -1.26243        2.14285       -0.00043
C         -0.69770        1.21664       -0.00019
C          1.37154        0.00001        0.00017
C          0.69766        1.21665       -0.00003
H          1.26236        2.14288       -0.00029
H         -1.26237       -2.14287       -0.00013
