11
BN_2.log	Energy: -155801.1636368
C          0.69198        1.22674        0.00101
C          1.43770        0.05264       -0.00039
C         -0.69021        1.12546        0.00310
H         -1.31623        2.01293        0.00277
H          2.52319        0.09210       -0.00293
H          1.33132       -2.10520       -0.00009
C          0.77912       -1.17257        0.00120
N         -1.35760       -0.04905        0.00570
C         -0.60675       -1.17199        0.00532
H         -1.16662       -2.10268        0.00825
H          1.17489        2.19729        0.00017
