14
BNT_2.log	Energy: -453495.9141816
C          2.18908       -0.94906        0.02728
C          2.56962        0.38211        0.02617
N          0.91901       -1.40088        0.01909
C          1.57822        1.36061        0.01451
C          0.22906        0.94955        0.00991
C         -0.01091       -0.42207        0.01305
H          3.61931        0.65492        0.03548
H          1.84015        2.41393        0.01300
H         -1.06795        2.76530        0.00277
S         -1.67520       -0.79330        0.01095
C         -1.00139        1.68432        0.00563
C         -2.10694        0.86199        0.01282
H         -3.14925        1.15033        0.01865
H          2.94401       -1.73225        0.03686
