13
bo-opt.log	Energy: -260841.8889949
C         -0.28441        1.69513        0.00000
C          0.55834        0.54441        0.00000
C         -1.63388        1.47093        0.00000
N          1.87783        0.44987        0.00000
N          0.98882       -1.65855       -0.00000
O          2.12622       -0.89649       -0.00000
H         -3.27543        0.04375        0.00000
H         -2.31798        2.31458        0.00000
C         -2.19380        0.14294        0.00000
C          0.00000       -0.77980       -0.00000
C         -1.41222       -0.97976       -0.00000
H         -1.82871       -1.98100       -0.00000
H          0.14166        2.69233        0.00000
