19
BPDFF.log	Energy: -471175.7076847
C          1.05193        1.42916       -0.00011
C         -0.12799        0.69687       -0.00003
C          2.23706        0.69986        0.00001
C         -1.54537        1.16837        0.00031
N         -2.32779        0.00190       -0.00009
C         -1.54852       -1.16387       -0.00055
C         -3.77990       -0.00345       -0.00007
O         -1.98153       -2.29796        0.00002
O         -1.96824        2.30621       -0.00018
F          3.41716       -1.33478        0.00026
F          3.41921        1.32929        0.00005
H         -4.15898       -0.51583       -0.88903
H         -4.15902       -0.51548        0.88907
H         -4.11158        1.03586       -0.00024
C          2.23597       -0.70362        0.00019
C         -0.12917       -0.69746       -0.00003
C          1.04973       -1.43124        0.00018
H          1.06452       -2.51578        0.00018
H          1.06811        2.51366       -0.00011
