13
bt-opt.log	Energy: -463551.8555941
C          1.22052        1.46216        0.00000
C         -0.00000        0.72586        0.00000
C          2.39788        0.76018        0.00000
N         -1.23626        1.24169       -0.00000
N         -1.19057       -1.28556       -0.00000
S         -2.26654       -0.04097       -0.00000
H          3.38757       -1.17448        0.00000
H          3.34292        1.29613        0.00000
C          2.42379       -0.67303        0.00000
C          0.02623       -0.72539       -0.00000
C          1.27256       -1.41710        0.00000
H          1.28371       -2.50188        0.00000
H          1.19246        2.54664        0.00000
