20
BTBT_2.log	Energy: -877786.8404376
C         -2.98037        1.03112       -0.23502
C         -1.59716        1.26612       -0.18561
C         -3.39106       -0.31815       -0.12137
C         -0.63129        0.21912       -0.05420
C         -0.97451       -1.17151        0.05145
C         -2.38657       -1.43902        0.03108
C          0.78078        0.48412       -0.02821
N          1.37112        1.69221       -0.09650
S          3.00834        1.43210       -0.03861
N          3.05840       -0.22191        0.07374
N         -2.97354       -2.64554        0.13209
S         -4.61045       -2.39370        0.03820
N         -4.66214       -0.74492       -0.13789
H         -0.36087       -3.25436        0.22723
H         -1.24944        2.29861       -0.26289
C          1.78506       -0.64331        0.07653
C         -0.01151       -2.22224        0.15689
C          1.37329       -1.99385        0.16262
H          2.09087       -2.80278        0.22724
H         -3.69840        1.83353       -0.35289
