13
BTF.log	Energy: -525821.0817371
C         -0.05945        1.80387       -0.00000
C         -0.74853        0.55457        0.00000
C          1.30906        1.79057       -0.00000
N         -2.07539        0.38538        0.00000
N         -0.77562       -1.78128        0.00000
S         -2.33086       -1.23931        0.00000
F          3.36654        0.63760       -0.00000
H          1.88803        2.70823       -0.00000
C          2.02245        0.55276       -0.00000
C          0.00000       -0.69107        0.00000
C          1.42431       -0.67477       -0.00000
H          2.00131       -1.59156       -0.00000
H         -0.62431        2.72963       -0.00000
