13
BTFF.log	Energy: -588086.3465258
C          0.54983        1.45660       -0.00000
C          0.97659        0.09553       -0.00000
C         -0.79293        1.68847        0.00000
N          2.24323       -0.32886       -0.00000
N          0.54569       -2.20055       -0.00000
S          2.17707       -1.97450       -0.00000
F         -3.04654        0.99007        0.00000
F         -1.28195        2.93567        0.00000
C         -1.75766        0.62478        0.00000
C          0.00000       -0.98124        0.00000
C         -1.39616       -0.68902        0.00000
H         -2.13913       -1.47739        0.00000
H          1.26211        2.27281       -0.00000
