79
BTPCL-charge.log	Energy: -3878888.4658871
C         -1.41626       -4.14439       -0.16193
C         -0.71507       -5.39232       -0.10990
C          0.71507       -5.39232        0.10987
C          1.41626       -4.14440        0.16192
C          0.71528       -2.91058        0.02804
C         -0.71528       -2.91058       -0.02804
N         -1.24908       -6.60459       -0.19193
S         -0.00000       -7.67912       -0.00003
N          1.24908       -6.60459        0.19189
C          2.78473       -3.82492        0.23562
C          2.90267       -2.43505        0.11157
N          1.64392       -1.87250       -0.02696
N         -1.64393       -1.87250        0.02697
C         -2.90268       -2.43505       -0.11157
C         -2.78473       -3.82492       -0.23564
C          1.45813       -0.52736       -0.56648
C         -1.45813       -0.52737        0.56652
Cl       -11.99813        5.82009        0.25116
Cl        -8.97349        6.86195        0.47505
Cl         8.97351        6.86195       -0.47509
Cl        11.99814        5.82007       -0.25120
C        -10.94777        3.34194        0.07102
C        -10.66103        4.70562        0.20714
S          4.32201       -4.64273        0.38125
C          5.13212       -3.07369        0.26277
C          4.24060       -1.98984        0.12062
C         -4.24060       -1.98984       -0.12062
C         -5.13213       -3.07369       -0.26278
S         -4.32201       -4.64273       -0.38128
C          6.46780       -2.67931        0.29077
C          6.64014       -1.28959        0.16893
S          5.06634       -0.46297        0.02457
S         -5.06634       -0.46297       -0.02456
C         -6.64015       -1.28959       -0.16893
C         -6.46780       -2.67930       -0.29078
C          7.94455       -0.73416        0.17374
C         -7.94455       -0.73416       -0.17373
H         -7.31424       -3.34977       -0.39260
H          7.31424       -3.34978        0.39257
C         -9.33365        5.16761        0.30581
C         -8.27758        4.25531        0.26801
C          8.27759        4.25531       -0.26802
C          9.33365        5.16761       -0.30583
C         10.66103        4.70561       -0.20716
C         10.94778        3.34194       -0.07102
C          8.44117        0.55045        0.07638
C         -8.44117        0.55045       -0.07636
C          9.85344        0.94841        0.09983
C          9.89120        2.42960       -0.03330
C          8.57487        2.91006       -0.13316
C          7.62663        1.77556       -0.07023
C         -7.62663        1.77555        0.07025
C         -8.57487        2.91006        0.13316
C         -9.89120        2.42961        0.03331
C         -9.85344        0.94841       -0.09980
C         10.97229        0.14407        0.21964
O          6.40475        1.86335       -0.13003
O         -6.40475        1.86334        0.13005
C        -10.97230        0.14407       -0.21959
C         10.92594       -1.27863        0.34646
C         12.30735        0.65354        0.22937
C        -10.92595       -1.27863       -0.34638
C        -12.30735        0.65355       -0.22932
N         10.91971       -2.43925        0.45122
N         13.40935        1.03104        0.24130
N        -13.40935        1.03104       -0.24125
N        -10.91972       -2.43925       -0.45111
H         -1.34642        0.22259       -0.22230
H         -2.33119       -0.26928        1.17067
H         11.98388        3.04153        0.00066
H         -0.58317       -0.50869        1.21735
H          1.34641        0.22258        0.22236
H          7.24836        4.58947       -0.34215
H         -7.24836        4.58947        0.34214
H          2.33118       -0.26925       -1.17062
H          0.58316       -0.50867       -1.21731
H        -11.98387        3.04154       -0.00067
H          8.68446       -1.51981        0.27913
H         -8.68446       -1.51981       -0.27913
