18
bttcc-opt.log	Energy: -694050.6311248
C          1.84619        1.35279       -0.00021
S          0.25043        2.07788        0.00012
C          1.83778       -0.01610       -0.00017
C          0.48767       -0.49423       -0.00005
C         -0.48704        0.49346        0.00008
C          3.05857       -0.89218        0.00007
C         -3.06501        0.89122       -0.00007
H          3.08178       -1.54094        0.88502
H          3.07794       -1.54668       -0.88070
H          3.97506       -0.29512       -0.00384
H         -3.68486        0.71293       -0.88625
H         -3.68950        0.70666        0.88153
H         -2.79522        1.95175        0.00437
C         -1.83595        0.01649        0.00008
S         -0.24808       -2.07584        0.00003
C         -1.84347       -1.35423       -0.00008
H         -2.71082       -2.00223       -0.00007
H          2.71562        1.99766       -0.00039
