12
BTTF.log	Energy: -706969.8297385
C          2.47083        0.31195        0.00000
C          1.90054       -0.92991        0.00000
S          1.30105        1.61701        0.00000
C          0.47665       -0.84141        0.00000
C         -0.00000        0.46265        0.00000
F         -2.08673        1.69219       -0.00000
H          2.46752       -1.85354        0.00000
S         -0.83814       -1.99325       -0.00000
C         -1.42064        0.52760       -0.00000
C         -2.01776       -0.69727       -0.00000
H         -3.07676       -0.91082       -0.00000
H          3.52561        0.55281        0.00000
