12
BTTFF.log	Energy: -769234.7504054
C         -0.63854        2.21491       -0.00000
C          0.62027        1.69236       -0.00000
S         -1.86798        0.96510       -0.00000
C          0.63854        0.26955        0.00000
C         -0.63854       -0.26955        0.00000
F         -1.74341       -2.42385        0.00000
F          1.74341        2.42385        0.00000
S          1.86798       -0.96510       -0.00000
C         -0.62027       -1.69236       -0.00000
C          0.63854       -2.21491       -0.00000
H          0.91319       -3.25983        0.00000
H         -0.91319        3.25983        0.00000
