17
BTZFF.log	Energy: -397617.3732998
C          0.67355       -1.45061       -0.00002
C         -0.53420       -0.71268        0.00004
C          1.82883       -0.71486       -0.00007
N         -1.81508        1.14076        0.00013
N         -2.50106        0.00116        0.00003
N         -1.81709       -1.13770        0.00011
C         -3.95523       -0.00143        0.00005
F          3.02897       -1.31896       -0.00011
F          3.03105        1.31646       -0.00010
H         -4.28402        1.03663       -0.00041
H         -4.31919       -0.51746        0.89180
H         -4.31919       -0.51827       -0.89123
C          1.82998        0.71393       -0.00007
C         -0.53298        0.71371        0.00005
C          0.67545        1.45061       -0.00001
H          0.70256        2.53389       -0.00000
H          0.69979       -2.53390       -0.00002
