23
cpdt-opt.log	Energy: -766529.2833022
C         -3.18836       -0.52829       -0.00038
C         -2.59239        0.70827       -0.00038
S         -2.02153       -1.83223        0.00011
C          1.17423        0.61773       -0.00024
C          0.72218       -0.68913       -0.00007
C          0.00001        1.59711        0.00011
C         -1.17423        0.61773        0.00001
C         -0.72218       -0.68913        0.00013
C         -0.00016        2.48099       -1.26688
C          0.00017        2.48021        1.26776
H          3.15897        1.63371       -0.00077
H          0.00017        1.86687        2.17401
H          0.88654        3.12503        1.28856
H         -0.88609        3.12517        1.28867
H         -3.15897        1.63372       -0.00054
H          0.88618        3.12587       -1.28747
H         -0.00034        1.86830       -2.17358
H         -0.88644        3.12595       -1.28717
S          2.02153       -1.83224        0.00017
C          2.59239        0.70826       -0.00052
C          3.18836       -0.52830       -0.00039
H          4.24422       -0.76298       -0.00056
H         -4.24423       -0.76296       -0.00047
