20
dpp-opt.log	Energy: -357434.6027520
C	-1.3734	-1.0493	-0.00022
C	-0.7055	0.1437	-0.00003
N	-0.4634	-2.0828	-0.00009
C	0.8894	-1.5879	-0.00023
C	-0.8922	1.5889	0.00035
O	-1.8739	2.3127	0.00002
O	1.8635	-2.322	0.00006
C	0.766	3.5051	-0.00018
C	-0.7511	-3.5049	0.00012
H	-0.3217	-3.9815	-0.88667
H	-0.3203	-3.9814	0.88629
H	-1.8333	-3.6518	0.00093
H	1.334	3.7903	0.89244
H	1.3327	3.7903	-0.89366
H	-0.1907	4.0313	0.00054
N	0.4639	2.0869	0.0001
C	0.7063	-0.1405	-0.00008
C	1.3736	1.0523	0.00019
H	2.4373	1.2578	0.00018
H	-2.437	-1.2555	-0.00022
