9
FU-opt.log	Energy: -144340.0946322
C          1.09515       -0.34746        0.00028
C          0.71806        0.96001       -0.00042
O         -0.00001       -1.16120       -0.00001
H          1.37389        1.81941       -0.00073
H         -1.37386        1.81944        0.00073
C         -0.71804        0.96002        0.00041
C         -1.09516       -0.34744       -0.00026
H         -2.05055       -0.85000       -0.00046
H          2.05054       -0.85003        0.00050
