36
ig-opt.log	Energy: -598855.5057360
C         -1.13513        4.70096        0.08685
C         -2.13583        3.73049        0.06411
C          0.21244        4.32577        0.08480
C          0.50845        2.97034        0.05961
C         -0.48255        1.95281        0.03603
C         -1.82323        2.36740        0.03887
N          1.77798        2.40275        0.05341
C          1.70314        1.02437        0.02648
C          0.22249        0.65274        0.01351
O          2.69797        0.31238        0.01657
C          3.02923        3.12910        0.07262
C         -0.22249       -0.65274       -0.01351
C          0.48255       -1.95281       -0.03603
C         -0.50845       -2.97034       -0.05961
N         -1.77798       -2.40275       -0.05341
C         -1.70314       -1.02437       -0.02648
C          1.82323       -2.36740       -0.03887
O         -2.69797       -0.31238       -0.01657
C         -3.02923       -3.12910       -0.07262
H         -2.61052        1.63244        0.02160
H          1.00182        5.07032        0.10241
H         -3.17987        4.02984        0.06585
H         -1.00182       -5.07032       -0.10241
H          2.61052       -1.63244       -0.02160
H          3.17987       -4.02984       -0.06585
H          3.11602        3.77857       -0.80636
H          3.10903        3.74352        0.97710
H          3.83363        2.39278        0.06141
H         -3.11602       -3.77857        0.80636
H         -3.10903       -3.74352       -0.97710
H         -3.83363       -2.39278       -0.06141
C          2.13583       -3.73049       -0.06411
C         -0.21244       -4.32577       -0.08480
C          1.13513       -4.70096       -0.08685
H          1.39634       -5.75566       -0.10635
H         -1.39634        5.75566        0.10635
