36
igf-opt.log	Energy: -723388.9562596
C         -1.17169        4.69549        0.08655
C         -2.16070        3.71181        0.06371
C          0.16262        4.30897        0.08422
C          0.50535        2.96534        0.05959
C         -0.48938        1.95174        0.03608
C         -1.83549        2.35369        0.03868
N          1.77900        2.40901        0.05373
C          1.70124        1.03040        0.02662
C          0.22202        0.65315        0.01357
O          2.69582        0.31844        0.01670
C          3.04742        3.11974        0.07261
C         -0.22202       -0.65315       -0.01357
C          0.48938       -1.95174       -0.03608
C         -0.50535       -2.96534       -0.05959
N         -1.77900       -2.40901       -0.05373
C         -1.70124       -1.03040       -0.02662
C          1.83549       -2.35369       -0.03868
O         -2.69582       -0.31844       -0.01670
C         -3.04742       -3.11974       -0.07261
H         -2.61492        1.61154        0.02132
F          1.13386        5.25583        0.10622
H         -3.20569        4.00576        0.06538
F         -1.13386       -5.25583       -0.10622
H          2.61492       -1.61154       -0.02132
H          3.20569       -4.00576       -0.06538
H          3.14243        3.76670       -0.80393
H          3.13558        3.73174        0.97462
H          3.83262        2.36357        0.06080
H         -3.14243       -3.76670        0.80393
H         -3.13558       -3.73174       -0.97462
H         -3.83262       -2.36357       -0.06080
C          2.16070       -3.71181       -0.06371
C         -0.16262       -4.30897       -0.08422
C          1.17169       -4.69549       -0.08655
H          1.41114       -5.75379       -0.10608
H         -1.41114        5.75379        0.10608
