38
NDTI.log	Energy: -1239352.8416042
C         -3.41459        3.25938        0.00007
C         -2.06768        3.41717        0.00022
S         -3.95824        1.59191       -0.00018
C         -2.29161        1.04913       -0.00002
C         -1.37187        2.15496        0.00015
C          0.00616        1.88780        0.00018
C          0.46755        0.54429        0.00010
C         -0.46385       -0.54777        0.00003
C         -1.85460       -0.26870       -0.00005
C          1.85896        0.26751        0.00005
C          2.29456       -1.05135        0.00006
C          1.37442       -2.15802        0.00013
C         -0.00462       -1.89230        0.00004
C         -0.98320       -3.01198       -0.00010
N         -2.34542       -2.66621       -0.00009
C         -2.83926       -1.36577       -0.00010
C          0.98702        3.00210        0.00033
N          2.34747        2.66338       -0.00026
C          2.84905        1.36274       -0.00005
O         -0.65293       -4.19125        0.00008
O         -4.04969       -1.16037       -0.00025
O          0.67384        4.18653        0.00065
O          4.05636        1.14093       -0.00031
H          1.56260       -4.37061        0.00022
H         -1.55671        4.36749        0.00045
C         -3.34683       -3.74039       -0.00001
C          3.29567        3.78456       -0.00053
H         -2.81596       -4.68883       -0.00133
H         -3.98075       -3.65130       -0.88527
H         -3.97906       -3.65290        0.88664
H          3.13467        4.40291        0.88541
H          4.30023        3.36854       -0.00106
H          3.13382        4.40314       -0.88616
S          3.96128       -1.59426       -0.00005
C          2.07181       -3.41966        0.00015
C          3.41850       -3.26134        0.00028
H          4.15992       -4.05127        0.00035
H         -4.15591        4.04939        0.00005
