40
PDI_2.log	Energy: -835293.0959014
C          1.48323       -2.42494       -0.02659
C          2.87572       -2.42198       -0.03105
C          0.71484       -1.23305       -0.00520
C          1.48721        2.42225        0.05508
C          5.03785       -1.22776       -0.03196
C          3.55676       -1.21410       -0.02190
C          2.85751       -0.00194       -0.00426
C          3.55875        1.20909        0.00558
C          5.03969        1.22037       -0.02893
N          5.65466       -0.00408       -0.07845
C          1.42419       -0.00112        0.00689
C          0.71626        1.23247        0.03038
C          2.87958        2.41785        0.04295
C         -0.71913       -1.23237        0.00093
C         -1.42676        0.00116        0.00656
C         -1.48906       -2.42311        0.00147
C         -2.88132       -2.41893        0.00041
C         -3.56064       -1.21040       -0.00806
C         -2.86015        0.00105       -0.00426
C         -3.55963        1.21336       -0.00806
C         -5.04237       -1.22164       -0.01943
N         -5.65714        0.00218       -0.06997
C         -5.04074        1.22635       -0.03924
H          1.01820        3.40219        0.08286
H          6.66488       -0.00482       -0.08410
O          5.67815        2.26536       -0.00952
O          5.67449       -2.27320        0.00686
O         -5.68008       -2.26630        0.02016
O         -5.67685        2.27326       -0.03300
H         -6.66760        0.00298       -0.07606
H         -1.02000       -3.40346        0.00517
H          3.42369        3.36051        0.05990
H          3.41810       -3.36618       -0.04460
H         -3.42552       -3.36294        0.00429
H         -3.42161        3.36561        0.01929
C         -0.71711        1.23278        0.02518
C         -2.87904        2.42179        0.01615
C         -1.48617        2.42471        0.03383
H         -1.01618        3.40383        0.05163
H          1.01268       -3.40445       -0.04209
