12
tcb-opt.log	Energy: -371687.3603163
C          0.08267       -1.05854       -0.00003
C          0.98414       -0.02757       -0.00006
S         -1.56249       -0.50075        0.00002
C          2.48013       -0.19879        0.00002
H          2.93639        0.26876       -0.88164
H          2.93601        0.26615        0.88327
H          2.75986       -1.25668       -0.00147
H          0.85433        2.19472        0.00001
C          0.32318        1.24779        0.00002
C         -1.03892        1.15447       -0.00002
H         -1.76632        1.95513       -0.00006
H          0.29231       -2.12025       -0.00006
