10
TCN.log	Energy: -404897.9418719
C         -1.19746       -1.30267       -0.00000
C         -1.29011        0.05752        0.00000
S          0.45461       -1.83792       -0.00000
C          0.19393        2.10529        0.00000
N          0.34171        3.25946        0.00000
H         -2.22385        0.60686        0.00000
C          0.00000        0.69125        0.00000
C          1.03726       -0.21571       -0.00000
H          2.09735       -0.00394       -0.00000
H         -2.00096       -2.02655       -0.00000
