9
TF.log	Energy: -409280.5705931
C          1.11577        1.01141       -0.00000
C          1.26420       -0.34634       -0.00000
S         -0.55607        1.48243        0.00000
F         -0.09695       -2.34520       -0.00000
H          2.21247       -0.87022       -0.00000
C         -0.00000       -1.00459       -0.00000
C         -1.08071       -0.17232        0.00000
H         -2.12743       -0.43807        0.00000
H          1.88913        1.76719       -0.00000
