52
tif-opt.log	Energy: -1177624.8952352
C          7.61860        0.44271       -0.00038
C          6.96511       -0.74802       -0.00057
S          6.53601        1.81987        0.00011
C          0.84924       -1.10446        0.00014
C          1.37177        0.20792        0.00024
C          0.52323        1.32241        0.00025
C         -0.84925        1.10458        0.00010
C         -1.37176       -0.20778        0.00017
C         -0.52323       -1.32228        0.00021
C         -1.97355        2.14076       -0.00026
C         -3.21106        1.24213       -0.00009
C         -2.83463       -0.12814        0.00003
C          1.97349       -2.14065       -0.00019
C          3.21102       -1.24207       -0.00007
C          2.83463        0.12821        0.00030
C         -4.54163        1.61299       -0.00021
C         -5.53241        0.60756       -0.00015
C         -5.13463       -0.75621        0.00019
C         -3.79026       -1.13995        0.00033
C          4.54156       -1.61300       -0.00042
C          5.53240       -0.60764       -0.00027
C          5.13469        0.75615        0.00040
C          3.79034        1.13995        0.00068
C         -1.92134        3.02628        1.26502
C         -1.92105        3.02662       -1.26526
C          1.92124       -3.02614        1.26514
C          1.92098       -3.02657       -1.26512
H         -0.93093       -2.33088        0.00049
H          0.93092        2.33101        0.00049
H          4.83719       -2.65987       -0.00076
H          3.50630        2.18867        0.00127
H         -4.83730        2.65984       -0.00049
H         -3.50617       -2.18865        0.00079
H         -0.99845        3.61757        1.28677
H         -2.76724        3.72332        1.28524
H         -1.95860        2.41747        2.17397
H         -1.95757        2.41800       -2.17435
H         -2.76721        3.72330       -1.28560
H         -0.99841        3.61830       -1.28627
H          0.99838       -3.61831       -1.28604
H          1.95739       -2.41801       -2.17426
H          2.76720       -3.72320       -1.28549
H          0.99822       -3.61723        1.28698
H          2.76700       -3.72335        1.28528
H          1.95872       -2.41729        2.17406
H         -7.47114        1.70772       -0.00088
H          7.47108       -1.70789       -0.00094
S         -6.53590       -1.82001        0.00012
C         -6.96512        0.74787       -0.00055
C         -7.61855       -0.44289       -0.00016
H         -8.68753       -0.61147       -0.00022
H          8.68759        0.61124       -0.00061
