30
tig-opt.log	Energy: -1001402.7603770
C         -4.14044       -1.53471       -0.00080
C         -4.22944       -0.15820       -0.00047
S         -2.51203       -2.13866        0.00010
C         -0.65435        0.20194        0.00007
C         -1.04499        1.66328       -0.00007
N         -2.43513        1.71292       -0.00021
C         -2.93699        0.40931       -0.00003
C         -1.89364       -0.51189        0.00022
C          0.65435       -0.20196        0.00011
C          1.04500       -1.66329        0.00015
N          2.43514       -1.71292        0.00012
C          2.93699       -0.40931        0.00008
C          1.89364        0.51188        0.00019
O         -0.30387        2.63825        0.00013
O          0.30389       -2.63827        0.00013
C         -3.20235        2.93970        0.00069
C          3.20237       -2.93969        0.00038
H          3.83629       -3.00782       -0.89161
H          3.83467       -3.00858        0.89348
H          2.49058       -3.76722       -0.00060
H         -3.83673        3.00798       -0.89095
H         -3.83418        3.00844        0.89414
H         -2.49055        3.76722       -0.00052
H         -5.16282        0.39213       -0.00066
H          5.16282       -0.39210       -0.00044
S          2.51201        2.13866       -0.00001
C          4.22944        0.15821       -0.00034
C          4.14042        1.53472       -0.00076
H          4.96584        2.23496       -0.00113
H         -4.96586       -2.23494       -0.00115
