12
tt-opt.log	Energy: -644704.5962393
C         -2.29542       -0.02817        0.00000
C         -1.45316       -1.10408        0.00000
S         -1.45316        1.50703        0.00000
C         -0.08842       -0.68992       -0.00000
C          0.08842        0.68992        0.00000
H          1.79271        2.13359       -0.00000
H         -1.79271       -2.13359        0.00000
S          1.45316       -1.50703       -0.00000
C          1.45316        1.10408       -0.00000
C          2.29542        0.02817       -0.00000
H          3.37746        0.03757       -0.00000
H         -3.37746       -0.03757        0.00000
