20
TVT.log	Energy: -741854.4947484
C         -2.42311        3.71359        0.00000
S         -0.73430        3.33058        0.00000
C         -3.19228        2.57923        0.00000
C          0.05255        0.67511        0.00000
C         -1.05856        1.60399        0.00000
C         -2.42311        1.38457        0.00000
C         -0.05254       -0.67511        0.00000
C          1.05857       -1.60399        0.00000
C          2.42311       -1.38457        0.00000
H          1.04523        1.12175        0.00000
H         -1.04523       -1.12175        0.00000
H          2.86228       -0.39272        0.00000
H          4.27712       -2.59597        0.00000
H         -2.86228        0.39272        0.00000
H         -4.27712        2.59597        0.00000
C          3.19228       -2.57923        0.00000
S          0.73430       -3.33058        0.00000
C          2.42311       -3.71359        0.00000
H          2.74764       -4.74530        0.00000
H         -2.74764        4.74530        0.00000
