20
TVTFF.log	Energy: -990916.1553888
C          1.77428        4.08097        0.00000
S          0.17181        3.41502        0.00000
C          2.70378        3.08368       -0.00000
C          0.76205        1.75848        0.00000
C          2.13808        1.78103       -0.00000
C         -0.17181        0.65639        0.00000
C          0.17181       -0.65639       -0.00000
C         -0.76205       -1.75848       -0.00000
C         -2.13808       -1.78103        0.00000
H         -1.22336        0.92688        0.00000
H          1.22336       -0.92688       -0.00000
F         -2.91342       -0.68351        0.00000
F         -4.02912       -3.26914        0.00000
F          2.91342        0.68351       -0.00000
F          4.02912        3.26914       -0.00000
C         -2.70378       -3.08368        0.00000
S         -0.17181       -3.41502       -0.00000
C         -1.77428       -4.08097       -0.00000
H         -1.94532       -5.14719       -0.00000
H          1.94532        5.14719        0.00000
